TROTINFO	1
	Version:	1.0
END


FILES	3
	1	mech.dat
	2	therm.dat
	3	tran.TRANSP
END

ELEM	3
	H	1.00797000e+00
	O	1.59994000e+01
	N	1.40067000e+01
END

SPEC	9
	H
	H2
	O
	OH
	H2O
	O2
	HO2
	H2O2
	N2
END

THERMO	9

H
g
1           H   1
  ?     1.007970000000000e+00
2
  300.00   1000.00
   2.50000000e+00   0.00000000e+00   0.00000000e+00   0.00000000e+00
   0.00000000e+00   2.54716300e+04  -4.60117600e-01   0.00000000e+00
  1000.00   5000.00
   2.50000000e+00   0.00000000e+00   0.00000000e+00   0.00000000e+00
   0.00000000e+00   2.54716300e+04  -4.60117600e-01   0.00000000e+00
!120186 therm.dat

H2
g
1           H   2
  ?     2.015940000000000e+00
2
  300.00   1000.00
   3.29812400e+00   8.24944200e-04  -8.14301500e-07  -9.47543400e-11
   4.13487200e-13  -1.01252100e+03  -3.29409400e+00   0.00000000e+00
  1000.00   5000.00
   2.99142227e+00   7.00064400e-04  -5.63382900e-08  -9.23157800e-12
   1.58275200e-15  -8.35033575e+02  -1.35510679e+00   0.00000000e+00
!121286 therm.dat

O
g
1           O   1
  ?     1.599940000000000e+01
2
  300.00   1000.00
   2.94642900e+00  -1.63816600e-03   2.42103200e-06  -1.60284300e-09
   3.89069600e-13   2.91476400e+04   2.96399500e+00   0.00000000e+00
  1000.00   5000.00
   2.54206076e+00  -2.75506200e-05  -3.10280300e-09   4.55106700e-12
  -4.36805200e-16   2.92307982e+04   4.92030244e+00   0.00000000e+00
!120186 therm.dat

OH
g
2           O   1     H   1
  ?     1.700737000000000e+01
2
  200.00   1000.00
   4.12530561e+00  -3.22544939e-03   6.52764691e-06  -5.79853643e-09
   2.06237379e-12   3.34630913e+03  -6.90432960e-01   0.00000000e+00
  1000.00   6000.00
   2.86472885e+00   1.05650448e-03  -2.59082758e-07   3.05218674e-11
  -1.33195876e-15   3.68362875e+03   5.70164076e+00   0.00000000e+00
!S 9/01 therm.dat

H2O
g
2           H   2     O   1
  ?     1.801534000000000e+01
2
  300.00   1000.00
   3.38684200e+00   3.47498200e-03  -6.35469600e-06   6.96858100e-09
  -2.50658800e-12  -3.02081100e+04   2.59023300e+00   0.00000000e+00
  1000.00   5000.00
   2.67214600e+00   3.05629300e-03  -8.73026000e-07   1.20099600e-10
  -6.39161800e-15  -2.98992118e+04   6.86281009e+00   0.00000000e+00
! 20387 therm.dat

O2
g
1           O   2
  ?     3.199880000000000e+01
2
  300.00   1000.00
   3.21293600e+00   1.12748600e-03  -5.75615000e-07   1.31387700e-09
  -8.76855400e-13  -1.00524900e+03   6.03473800e+00   0.00000000e+00
  1000.00   5000.00
   3.69757672e+00   6.13519700e-04  -1.25884200e-07   1.77528100e-11
  -1.13643500e-15  -1.23392958e+03   3.18917106e+00   0.00000000e+00
!121386 therm.dat

HO2
g
2           H   1     O   2
  ?     3.300677000000000e+01
2
  200.00   1000.00
   4.30179801e+00  -4.74912051e-03   2.11582891e-05  -2.42763894e-08
   9.29225124e-12   2.94808040e+02   3.71666245e+00   0.00000000e+00
  1000.00   3500.00
   4.01721093e+00   2.23982013e-03  -6.33658150e-07   1.14246370e-10
  -1.07908535e-14   1.11856692e+02   3.78510193e+00   0.00000000e+00
!L 5/89 therm.dat

H2O2
g
2           H   2     O   2
  ?     3.401474000000000e+01
2
  300.00   1000.00
   3.38875400e+00   6.56922600e-03  -1.48501300e-07  -4.62580600e-09
   2.47151500e-12  -1.76631500e+04   6.78536300e+00   0.00000000e+00
  1000.00   5000.00
   4.57316682e+00   4.33613600e-03  -1.47468900e-06   2.34890400e-10
  -1.43165400e-14  -1.80069630e+04   5.01138694e-01   0.00000000e+00
!120186 therm.dat

N2
g
1           N   2
  ?     2.801340000000000e+01
2
  300.00   1000.00
   3.29867700e+00   1.40824000e-03  -3.96322200e-06   5.64151500e-09
  -2.44485500e-12  -1.02090000e+03   3.95037200e+00   0.00000000e+00
  1000.00   5000.00
   2.92663704e+00   1.48797700e-03  -5.68476100e-07   1.00970400e-10
  -6.75335100e-15  -9.22794691e+02   5.98054580e+00   0.00000000e+00
!121286 therm.dat
END

CRIT	0
END

TRANSPORT	9
	H		0	145.000	2.050	0.000	0.000	0.000
	H2		1	38.000	2.920	0.000	0.790	280.000
	O		0	80.000	2.750	0.000	0.000	0.000
	OH		1	80.000	2.750	0.000	0.000	0.000
	H2O		2	572.400	2.605	1.844	0.000	4.000
	O2		1	107.400	3.458	0.000	1.600	3.800
	HO2		2	107.400	3.458	0.000	0.000	1.000
	H2O2		2	107.400	3.458	0.000	0.000	3.800
	N2		1	97.530	3.621	0.000	1.760	4.000
END


REAC	23
	#
	1	1	82	REV	INDEP	M
	2
	1	1	H	1	1	O2
	2
	1	1	O	1	1	OH
	1.04000000e+14	0	7.69226247e+03
	#
	2	1	85	REV	INDEP	M
	2
	1	1	O	1	1	H2
	2
	1	1	H	1	1	OH
	3.81800000e+12	0	3.99961416e+03
	#
	3	1	87	REV	INDEP	M
	2
	1	1	O	1	1	H2
	2
	1	1	H	1	1	OH
	8.79200000e+14	0	9.64677951e+03
	#
	4	1	91	REV	INDEP	M
	2
	1	1	H2	1	1	OH
	2
	1	1	H2O	1	1	H
	2.16000000e+08	1.51	1.72605392e+03
	#
	5	1	94	REV	INDEP	M
	1
	2	2	OH
	2
	1	1	O	1	1	H2O
	3.34000000e+04	2.42	-9.71219846e+02
	#
	6	1	101	REV	INDEP	M
	2
	1	1	H2	1	1	M
	2
	2	2	H	1	1	M
	4.57700000e+19	-1.4	5.25263873e+04
	ENHANCED	2
	H2	2.5
	H2O	12
	#
	7	1	105	REV	INDEP	M
	2
	2	2	O	1	1	M
	2
	1	1	O2	1	1	M
	6.16500000e+15	-0.5	0.00000000e+00
	ENHANCED	2
	H2	2.5
	H2O	12
	#
	8	1	109	REV	INDEP	M
	3
	1	1	O	1	1	H	1	1	M
	2
	1	1	OH	1	1	M
	4.71400000e+18	-1	0.00000000e+00
	ENHANCED	2
	H2	2.5
	H2O	12
	#
	9	1	114	REV	INDEP	M
	2
	1	1	H2O	1	1	M
	3
	1	1	H	1	1	OH	1	1	M
	6.06400000e+27	-3.322	6.07842721e+04
	ENHANCED	4
	H2	3
	H2O	0
	N2	2
	O2	1.5
	#
	10	1	120	REV	INDEP	M
	1
	2	2	H2O
	3
	1	1	H	1	1	OH	1	1	H2O
	1.00600000e+26	-2.44	6.04773063e+04
	#
	11	1	132	REV	PDEP	M
	2
	1	1	H	1	1	O2
	1
	1	1	HO2
	4.65084000e+12	0.44	0.00000000e+00
	ENHANCED	3
	H2	2
	H2O	14
	O2	0.78
	LOW	6.36600000e+20	-1.72000000e+00	2.64091282e+02
	TROE 3 	5.00000000e-01	1.00000000e-30	1.00000000e+30
	#
	12	1	148	REV	INDEP	M
	2
	1	1	HO2	1	1	H
	2
	1	1	H2	1	1	O2
	2.75000000e+06	2.09	-7.30176164e+02
	#
	13	1	151	REV	INDEP	M
	2
	1	1	HO2	1	1	H
	1
	2	2	OH
	7.07900000e+13	0	1.48450702e+02
	#
	14	1	156	REV	INDEP	M
	2
	1	1	HO2	1	1	O
	2
	1	1	O2	1	1	OH
	2.85000000e+10	1	-3.64298022e+02
	#
	15	1	159	REV	INDEP	M
	2
	1	1	HO2	1	1	OH
	2
	1	1	H2O	1	1	O2
	2.89000000e+13	0	-2.50101691e+02
	#
	16	1	166	REV	INDEP	M
	1
	2	2	HO2
	2
	1	1	H2O2	1	1	O2
	4.20000000e+14	0	6.02961461e+03
	#
	17	1	168	REV	INDEP	M
	1
	2	2	HO2
	2
	1	1	H2O2	1	1	O2
	1.30000000e+11	0	-8.19900775e+02
	#
	18	1	173	REV	PDEP	M
	1
	1	1	H2O2
	1
	2	2	OH
	2.00000000e+12	0.9	2.45316043e+04
	ENHANCED	5
	H2O	7.5
	N2	1.5
	O2	1.2
	H2O2	7.7
	H2	3.7
	LOW	2.49000000e+24	-2.30000000e+00	2.45316043e+04
	TROE 3 	4.30000000e-01	1.00000000e-30	1.00000000e+30
	#
	19	1	184	REV	INDEP	M
	2
	1	1	H2O2	1	1	H
	2
	1	1	H2O	1	1	OH
	2.41000000e+13	0	1.99779419e+03
	#
	20	1	185	REV	INDEP	M
	2
	1	1	H2O2	1	1	H
	2
	1	1	HO2	1	1	H2
	4.82000000e+13	0	4.00062061e+03
	#
	21	1	186	REV	INDEP	M
	2
	1	1	H2O2	1	1	O
	2
	1	1	OH	1	1	HO2
	9.55000000e+06	2	1.99779419e+03
	#
	22	1	189	REV	INDEP	M
	2
	1	1	H2O2	1	1	OH
	2
	1	1	HO2	1	1	H2O
	1.74000000e+12	0	1.60024824e+02
	#
	23	1	191	REV	INDEP	M
	2
	1	1	H2O2	1	1	OH
	2
	1	1	HO2	1	1	H2O
	7.59000000e+13	0	3.65842916e+03
END


VISCOSITY	9
	H	4	-2.3109196653e+01	 3.8034405328e+00	-4.1619771506e-01	 1.8266182365e-02
	H2	4	-1.6764491932e+01	 1.3108251489e+00	-1.0006750848e-01	 4.9932269126e-03
	O	4	-1.9484519086e+01	 2.8481003358e+00	-3.0795568889e-01	 1.4308775217e-02
	OH	4	-1.9453971433e+01	 2.8481003930e+00	-3.0795569747e-01	 1.4308775644e-02
	H2O	4	-1.5174746208e+01	-4.8858922788e-01	 3.1538028251e-01	-2.0301778485e-02
	O2	4	-2.1091577299e+01	 3.3800987342e+00	-3.7197264005e-01	 1.6832763823e-02
	HO2	4	-2.1076070181e+01	 3.3800987467e+00	-3.7197264193e-01	 1.6832763917e-02
	H2O2	4	-2.1061029443e+01	 3.3800986995e+00	-3.7197263485e-01	 1.6832763565e-02
	N2	4	-2.0775458014e+01	 3.2163178363e+00	-3.5295132597e-01	 1.6115045522e-02
END


CONDUCTIVITY	9
	H	4	-1.2769626350e+01	 3.8034405416e+00	-4.1619771638e-01	 1.8266182431e-02
	H2	4	-9.3988976394e+00	 2.7143182396e+00	-3.5614992287e-01	 2.0627788367e-02
	O	4	-1.1909561686e+01	 2.8481003847e+00	-3.0795569623e-01	 1.4308775582e-02
	OH	4	-5.2363389386e+00	 2.2901843176e-01	 2.6826811257e-02	 1.2201954272e-03
	H2O	4	 7.9425087148e-01	-4.2231737347e+00	 8.6018587171e-01	-4.4866934283e-02
	O2	4	-1.0549274188e+01	 1.5845572282e+00	-7.5372244893e-02	 1.7861829273e-03
	HO2	4	-9.3745254951e+00	 9.1167834088e-01	 4.4362183980e-02	-4.2283466757e-03
	H2O2	4	-1.1753750486e+01	 1.8312700103e+00	-5.5987526299e-02	-8.7472445572e-04
	N2	4	-3.2756703702e+00	-1.4998231724e+00	 3.5516180364e-01	-1.8167744151e-02
END


DIFFUSIVITIES	9
	H	H	4	-2.4602977177e+01	 4.4760848102e+00	-3.6943730749e-01	 1.6133532565e-02
	H2	H	4	-2.2199042056e+01	 3.4772392926e+00	-2.5371551489e-01	 1.1754249280e-02
	H2	H2	4	-1.9759811024e+01	 2.3150629727e+00	-9.6989989435e-02	 4.7408036935e-03
	O	H	4	-2.3996421105e+01	 4.0801838082e+00	-3.2701236371e-01	 1.4689962785e-02
	O	H2	4	-2.1582719153e+01	 2.9545351036e+00	-1.8526175132e-01	 8.7823053987e-03
	O	O	4	-2.3986996126e+01	 3.6050151902e+00	-2.6983875978e-01	 1.2427207904e-02
	OH	H	4	-2.3998180490e+01	 4.0801838192e+00	-3.2701236535e-01	 1.4689962867e-02
	OH	H2	4	-2.1586046165e+01	 2.9545350852e+00	-1.8526174855e-01	 8.7823052612e-03
	OH	O	4	-2.4002036648e+01	 3.6050151394e+00	-2.6983875215e-01	 1.2427207524e-02
	OH	OH	4	-2.4017543823e+01	 3.6050151529e+00	-2.6983875419e-01	 1.2427207626e-02
	H2O	H	4	-2.6746991276e+01	 4.7205274100e+00	-3.6111172961e-01	 1.4126212405e-02
	H2O	H2	4	-2.5904942097e+01	 4.4954014763e+00	-3.7129371711e-01	 1.6186028484e-02
	H2O	O	4	-2.7792386544e+01	 4.7854898136e+00	-3.9063790979e-01	 1.6259480110e-02
	H2O	OH	4	-2.7808332890e+01	 4.7854897868e+00	-3.9063790577e-01	 1.6259479910e-02
	H2O	H2O	4	-2.3072332161e+01	 1.7506052995e+00	 1.3179535804e-01	-1.1274889492e-02
	O2	H	4	-2.4919324485e+01	 4.2886926040e+00	-3.5020835554e-01	 1.5521955570e-02
	O2	H2	4	-2.2521119383e+01	 3.2152249784e+00	-2.1986697674e-01	 1.0305577632e-02
	O2	O	4	-2.5048942922e+01	 3.8478902979e+00	-2.9967678083e-01	 1.3636416600e-02
	O2	OH	4	-2.5069099352e+01	 3.8478902979e+00	-2.9967678084e-01	 1.3636416601e-02
	O2	H2O	4	-2.8455866368e+01	 4.7994354645e+00	-3.8283571111e-01	 1.5530198741e-02
	O2	O2	4	-2.6127310180e+01	 4.0759883743e+00	-3.2653111122e-01	 1.4671994112e-02
	HO2	H	4	-2.4919791020e+01	 4.2886926152e+00	-3.5020835721e-01	 1.5521955653e-02
	HO2	H2	4	-2.2522025198e+01	 3.2152249986e+00	-2.1986697977e-01	 1.0305577782e-02
	HO2	O	4	-2.5054058694e+01	 3.8478902871e+00	-2.9967677922e-01	 1.3636416520e-02
	HO2	OH	4	-2.5074426743e+01	 3.8478903091e+00	-2.9967678252e-01	 1.3636416684e-02
	HO2	H2O	4	-2.8461396837e+01	 4.7994354531e+00	-3.8283570941e-01	 1.5530198656e-02
	HO2	O2	4	-2.6135003594e+01	 4.0759883545e+00	-3.2653110825e-01	 1.4671993964e-02
	HO2	HO2	4	-2.6142817260e+01	 4.0759883445e+00	-3.2653110675e-01	 1.4671993890e-02
	H2O2	H	4	-2.4920230267e+01	 4.2886926092e+00	-3.5020835632e-01	 1.5521955609e-02
	H2O2	H2	4	-2.2522878838e+01	 3.2152250216e+00	-2.1986698322e-01	 1.0305577954e-02
	H2O2	O	4	-2.5058919574e+01	 3.8478902982e+00	-2.9967678089e-01	 1.3636416603e-02
	H2O2	OH	4	-2.5079490673e+01	 3.8478902854e+00	-2.9967677897e-01	 1.3636416508e-02
	H2O2	H2O	4	-2.8466656019e+01	 4.7994354625e+00	-3.8283571082e-01	 1.5530198726e-02
	H2O2	O2	4	-2.6142350773e+01	 4.0759883555e+00	-3.2653110840e-01	 1.4671993972e-02
	H2O2	HO2	4	-2.6150281049e+01	 4.0759883560e+00	-3.2653110849e-01	 1.4671993976e-02
	H2O2	H2O2	4	-2.6157858005e+01	 4.0759883952e+00	-3.2653111436e-01	 1.4671994268e-02
	N2	H	4	-2.4772004212e+01	 4.2228602963e+00	-3.4305146135e-01	 1.5273347017e-02
	N2	H2	4	-2.2345296925e+01	 3.1300521596e+00	-2.0865671866e-01	 9.8164199573e-03
	N2	O	4	-2.4857712460e+01	 3.7698181690e+00	-2.9021081560e-01	 1.3258516216e-02
	N2	OH	4	-2.4876938574e+01	 3.7698181933e+00	-2.9021081925e-01	 1.3258516397e-02
	N2	H2O	4	-2.8416563821e+01	 4.8034173506e+00	-3.8666576921e-01	 1.5830487907e-02
	N2	O2	4	-2.5926030439e+01	 4.0032213850e+00	-3.1810621242e-01	 1.4353726932e-02
	N2	HO2	4	-2.5933209303e+01	 4.0032213917e+00	-3.1810621343e-01	 1.4353726982e-02
	N2	H2O2	4	-2.5940058029e+01	 4.0032213625e+00	-3.1810620904e-01	 1.4353726764e-02
	N2	N2	4	-2.5723455391e+01	 3.9285627507e+00	-3.0931937597e-01	 1.4015027813e-02
END


THERM_COEFFICIENTS	9
	H	H	4	-6.8369800201e+00	 2.3944390257e+00	-2.4461781571e-01	 7.5779909746e-03
	H2	H	4	-9.9912715675e+00	 4.3127515551e+00	-5.8600870814e-01	 2.6453679088e-02
	H2	H2	4	-5.2773891179e+00	 2.5742096899e+00	-3.7687138800e-01	 1.8295314815e-02
	O	H	4	-9.4192681939e+00	 3.7680586626e+00	-4.7105745414e-01	 1.9467579272e-02
	O	H2	4	-8.5972741565e+00	 3.8885762177e+00	-5.4861354128e-01	 2.5696758290e-02
	O	O	4	-1.0100246200e+01	 4.3052578848e+00	-5.7797115685e-01	 2.5776183275e-02
	OH	H	4	-9.4192681939e+00	 3.7680586626e+00	-4.7105745414e-01	 1.9467579272e-02
	OH	H2	4	-8.5972741565e+00	 3.8885762177e+00	-5.4861354128e-01	 2.5696758290e-02
	OH	O	4	-1.0100246200e+01	 4.3052578848e+00	-5.7797115685e-01	 2.5776183275e-02
	OH	OH	4	-1.0100246200e+01	 4.3052578848e+00	-5.7797115685e-01	 2.5776183275e-02
	H2O	H	4	 6.6293240118e+00	-3.8410313393e+00	 6.8445361459e-01	-3.7447925339e-02
	H2O	H2	4	-6.6306607786e+00	 2.2909606247e+00	-2.2822750868e-01	 6.7429336209e-03
	H2O	O	4	-5.0204662293e-01	-6.3257568679e-01	 2.1778131388e-01	-1.5303082779e-02
	H2O	OH	4	-5.0204662293e-01	-6.3257568679e-01	 2.1778131388e-01	-1.5303082779e-02
	H2O	H2O	4	 2.9283142496e+01	-1.3324138541e+01	 1.9777540894e+00	-9.5301559268e-02
	O2	H	4	-8.3835621593e+00	 3.1922273114e+00	-3.7348762958e-01	 1.4243521829e-02
	O2	H2	4	-9.4663970492e+00	 4.1842377609e+00	-5.8036105875e-01	 2.6736672234e-02
	O2	O	4	-9.9926167601e+00	 4.1426525895e+00	-5.4014671562e-01	 2.3374026576e-02
	O2	OH	4	-9.9926167601e+00	 4.1426525895e+00	-5.4014671562e-01	 2.3374026576e-02
	O2	H2O	4	 2.7772388133e+00	-2.1261289839e+00	 4.3725332963e-01	-2.5810465697e-02
	O2	O2	4	-9.4344868790e+00	 3.7770698479e+00	-4.7263987303e-01	 1.9554360547e-02
	HO2	H	4	-8.3835621593e+00	 3.1922273114e+00	-3.7348762958e-01	 1.4243521829e-02
	HO2	H2	4	-9.4663970492e+00	 4.1842377609e+00	-5.8036105875e-01	 2.6736672234e-02
	HO2	O	4	-9.9926167601e+00	 4.1426525895e+00	-5.4014671562e-01	 2.3374026576e-02
	HO2	OH	4	-9.9926167601e+00	 4.1426525895e+00	-5.4014671562e-01	 2.3374026576e-02
	HO2	H2O	4	 2.7772388150e+00	-2.1261289846e+00	 4.3725332974e-01	-2.5810465702e-02
	HO2	O2	4	-9.4344868790e+00	 3.7770698479e+00	-4.7263987303e-01	 1.9554360547e-02
	HO2	HO2	4	-9.4344868790e+00	 3.7770698479e+00	-4.7263987303e-01	 1.9554360547e-02
	H2O2	H	4	-8.3835621593e+00	 3.1922273114e+00	-3.7348762958e-01	 1.4243521829e-02
	H2O2	H2	4	-9.4663970492e+00	 4.1842377609e+00	-5.8036105875e-01	 2.6736672234e-02
	H2O2	O	4	-9.9926167601e+00	 4.1426525895e+00	-5.4014671562e-01	 2.3374026576e-02
	H2O2	OH	4	-9.9926167601e+00	 4.1426525895e+00	-5.4014671562e-01	 2.3374026576e-02
	H2O2	H2O	4	 2.7772388150e+00	-2.1261289846e+00	 4.3725332974e-01	-2.5810465702e-02
	H2O2	O2	4	-9.4344868790e+00	 3.7770698479e+00	-4.7263987303e-01	 1.9554360547e-02
	H2O2	HO2	4	-9.4344868790e+00	 3.7770698479e+00	-4.7263987303e-01	 1.9554360547e-02
	H2O2	H2O2	4	-9.4344868790e+00	 3.7770698479e+00	-4.7263987303e-01	 1.9554360547e-02
	N2	H	4	-8.7748249909e+00	 3.4034044879e+00	-4.0862620085e-01	 1.6101041851e-02
	N2	H2	4	-9.2177461354e+00	 4.1048486628e+00	-5.7268712827e-01	 2.6534294116e-02
	N2	O	4	-1.0076244472e+01	 4.2179026230e+00	-5.5577914505e-01	 2.4317015056e-02
	N2	OH	4	-1.0076244472e+01	 4.2179026230e+00	-5.5577914505e-01	 2.4317015056e-02
	N2	H2O	4	 1.6498482139e+00	-1.6165980078e+00	 3.6286183507e-01	-2.2268941892e-02
	N2	O2	4	-9.6680786832e+00	 3.9193790444e+00	-4.9800772082e-01	 2.0958993223e-02
	N2	HO2	4	-9.6680786832e+00	 3.9193790444e+00	-4.9800772082e-01	 2.0958993223e-02
	N2	H2O2	4	-9.6680786832e+00	 3.9193790444e+00	-4.9800772082e-01	 2.0958993223e-02
	N2	N2	4	-9.8519058413e+00	 4.0396042329e+00	-5.2019316537e-01	 2.2213815579e-02
END
